<routes>
            <vType accel="1.0" decel="4.5" id="standard_car" length="5.0" minGap="2.5" maxSpeed="25" sigma="0.5" />

            <route id="W_N" edges="W2TL TL2N"/>
            <route id="W_2_N" edges="W2TL TL2E 2_TL2N"/>
            <route id="W_E" edges="W2TL TL2E 2_TL2E"/>
            <route id="W_S" edges="W2TL TL2S"/>
            <route id="W_2_S" edges ="W2TL TL2E 2_TL2S"/>
            
            <route id="N_W" edges="N2TL TL2W"/>
            <route id="N_E" edges="N2TL TL2E 2_TL2E"/>
            <route id="N_S" edges="N2TL TL2S"/>
            <route id="N_2_S" edges="N2TL TL2E 2_TL2S" />
            <route id="N_2_N" edges="N2TL TL2E 2_TL2N" />
            
            <route id="S_W" edges="S2TL TL2W"/>
            <route id="S_N" edges="S2TL TL2N"/>
            <route id="S_2_N" edges="S2TL TL2E 2_TL2N" />
            <route id="S_E" edges="S2TL TL2E 2_TL2E"/>
            <route id="S_2_S" edges="S2TL TL2E 2_TL2S" />
            
            <route id="E_W" edges="2_E2TL 2_TL2W TL2W"/>
            <route id="E_N" edges="2_E2TL 2_TL2W TL2N"/>
            <route id="E_S" edges="2_E2TL 2_TL2W TL2S"/>
            <route id="E_2_N" edges="2_E2TL 2_TL2N" />
            <route id="E_2_S" edges="2_E2TL 2_TL2S" />

            <route id="2_N_E" edges="2_N2TL 2_TL2E" />
            <route id="2_N_2_S" edges="2_N2TL 2_TL2S" />
            <route id="2_N_W" edges="2_N2TL 2_TL2W TL2W" />
            <route id="2_N_N" edges="2_N2TL 2_TL2W TL2N" />
            <route id="2_N_S" edges="2_N2TL 2_TL2W TL2S" />
            
            <route id="2_S_E" edges="2_S2TL 2_TL2E" />
            <route id="2_S_2_N" edges="2_S2TL 2_TL2N" />
            <route id="2_S_W" edges="2_S2TL 2_TL2W TL2W" />
            <route id="2_S_N" edges="2_S2TL 2_TL2W TL2N" />
            <route id="2_S_S" edges="2_S2TL 2_TL2W TL2S" />
            
            
            
    <vehicle id="E_S_0" type="standard_car" route="E_S" depart="11.0" departLane="random" departSpeed="10" > <stop lane="TL2S_0" endPos="750" duration="0"/> </vehicle>
    <vehicle id="E_N_1" type="standard_car" route="E_N" depart="12.0" departLane="random" departSpeed="10"> <stop lane="TL2N_0" endPos="750" duration="0"/> </vehicle>
    <vehicle id="W_2_N_2" type="standard_car" route="W_2_N" depart="26.0" departLane="random" departSpeed="10" > <stop lane="2_TL2N_0" endPos="750" duration="0"/> </vehicle>
    <vehicle id="2_N_2_S_3" type="standard_car" route="2_N_2_S" depart="32.0" departLane="random" departSpeed="10" > <stop lane="2_TL2S_0" endPos="750" duration="0"/> </vehicle>
    <vehicle id="W_2_S_4" type="standard_car" route="W_2_S" depart="35.0" departLane="random" departSpeed="10" > <stop lane="2_TL2S_0" endPos="750" duration="0"/> </vehicle>
    <vehicle id="S_2_S_5" type="standard_car" route="S_2_S" depart="41.0" departLane="random" departSpeed="10" > <stop lane="2_TL2S_0" endPos="750" duration="0"/> </vehicle>
    <vehicle id="N_S_6" type="standard_car" route="N_S" depart="50.0" departLane="random" departSpeed="10"> <stop lane="TL2S_0" endPos="750" duration="0"/> </vehicle>
    <vehicle id="2_S_E_7" type="standard_car" route="2_S_E" depart="54.0" departLane="random" departSpeed="10" > <stop lane="2_TL2E_0" endPos="750" duration="0"/> </vehicle>
    <vehicle id="W_S_8" type="standard_car" route="W_S" depart="56.0" departLane="random" departSpeed="10" > <stop lane="TL2S_0" endPos="750" duration="0"/> </vehicle>
    <vehicle id="E_N_9" type="standard_car" route="E_N" depart="58.0" departLane="random" departSpeed="10"> <stop lane="TL2N_0" endPos="750" duration="0"/> </vehicle>
    <vehicle id="W_N_10" type="standard_car" route="W_N" depart="60.0" departLane="random" departSpeed="10"> <stop lane="TL2N_0" endPos="750" duration="0"/> </vehicle>
    <vehicle id="S_N_11" type="standard_car" route="S_N" depart="61.0" departLane="random" departSpeed="10" > <stop lane="TL2N_0" endPos="750" duration="0"/> </vehicle>
    <vehicle id="E_2_N_12" type="standard_car" route="E_2_N" depart="70.0" departLane="random" departSpeed="10" > <stop lane="2_TL2N_0" endPos="750" duration="0"/> </vehicle>
    <vehicle id="2_S_2_N_13" type="standard_car" route="2_S_2_N" depart="71.0" departLane="random" departSpeed="10" > <stop lane="2_TL2N_0" endPos="750" duration="0"/> </vehicle>
    <vehicle id="W_2_S_14" type="standard_car" route="W_2_S" depart="82.0" departLane="random" departSpeed="10" > <stop lane="2_TL2S_0" endPos="750" duration="0"/> </vehicle>
    <vehicle id="2_S_N_15" type="standard_car" route="2_S_N" depart="84.0" departLane="random" departSpeed="10" > <stop lane="TL2N_0" endPos="750" duration="0"/> </vehicle>
    <vehicle id="N_S_16" type="standard_car" route="N_S" depart="92.0" departLane="random" departSpeed="10"> <stop lane="TL2S_0" endPos="750" duration="0"/> </vehicle>
    <vehicle id="W_2_S_17" type="standard_car" route="W_2_S" depart="93.0" departLane="random" departSpeed="10" > <stop lane="2_TL2S_0" endPos="750" duration="0"/> </vehicle>
    <vehicle id="2_N_E_18" type="standard_car" route="2_N_E" depart="93.0" departLane="random" departSpeed="10" > <stop lane="2_TL2E_0" endPos="750" duration="0"/> </vehicle>
    <vehicle id="W_E_19" type="standard_car" route="W_E" depart="94.0" departLane="random" departSpeed="10" > <stop lane="2_TL2E_0" endPos="750" duration="0"/> </vehicle>
    <vehicle id="2_S_2_N_20" type="standard_car" route="2_S_2_N" depart="96.0" departLane="random" departSpeed="10" > <stop lane="2_TL2N_0" endPos="750" duration="0"/> </vehicle>
    <vehicle id="2_S_2_N_21" type="standard_car" route="2_S_2_N" depart="97.0" departLane="random" departSpeed="10" > <stop lane="2_TL2N_0" endPos="750" duration="0"/> </vehicle>
    <vehicle id="W_2_N_22" type="standard_car" route="W_2_N" depart="98.0" departLane="random" departSpeed="10" > <stop lane="2_TL2N_0" endPos="750" duration="0"/> </vehicle>
    <vehicle id="E_W_23" type="standard_car" route="E_W" depart="99.0" departLane="random" departSpeed="10" > <stop lane="TL2W_0" endPos="750" duration="0"/> </vehicle>
    <vehicle id="E_N_24" type="standard_car" route="E_N" depart="100.0" departLane="random" departSpeed="10"> <stop lane="TL2N_0" endPos="750" duration="0"/> </vehicle>
    <vehicle id="W_2_S_25" type="standard_car" route="W_2_S" depart="100.0" departLane="random" departSpeed="10" > <stop lane="2_TL2S_0" endPos="750" duration="0"/> </vehicle>
    <vehicle id="W_E_26" type="standard_car" route="W_E" depart="104.0" departLane="random" departSpeed="10" > <stop lane="2_TL2E_0" endPos="750" duration="0"/> </vehicle>
    <vehicle id="2_N_2_S_27" type="standard_car" route="2_N_2_S" depart="106.0" departLane="random" departSpeed="10" > <stop lane="2_TL2S_0" endPos="750" duration="0"/> </vehicle>
    <vehicle id="2_N_2_S_28" type="standard_car" route="2_N_2_S" depart="107.0" departLane="random" departSpeed="10" > <stop lane="2_TL2S_0" endPos="750" duration="0"/> </vehicle>
    <vehicle id="E_W_29" type="standard_car" route="E_W" depart="115.0" departLane="random" departSpeed="10" > <stop lane="TL2W_0" endPos="750" duration="0"/> </vehicle>
    <vehicle id="E_N_30" type="standard_car" route="E_N" depart="120.0" departLane="random" departSpeed="10"> <stop lane="TL2N_0" endPos="750" duration="0"/> </vehicle>
    <vehicle id="E_S_31" type="standard_car" route="E_S" depart="120.0" departLane="random" departSpeed="10" > <stop lane="TL2S_0" endPos="750" duration="0"/> </vehicle>
    <vehicle id="E_W_32" type="standard_car" route="E_W" depart="122.0" departLane="random" departSpeed="10" > <stop lane="TL2W_0" endPos="750" duration="0"/> </vehicle>
    <vehicle id="N_S_33" type="standard_car" route="N_S" depart="122.0" departLane="random" departSpeed="10"> <stop lane="TL2S_0" endPos="750" duration="0"/> </vehicle>
    <vehicle id="E_2_N_34" type="standard_car" route="E_2_N" depart="129.0" departLane="random" departSpeed="10" > <stop lane="2_TL2N_0" endPos="750" duration="0"/> </vehicle>
    <vehicle id="W_N_35" type="standard_car" route="W_N" depart="130.0" departLane="random" departSpeed="10"> <stop lane="TL2N_0" endPos="750" duration="0"/> </vehicle>
    <vehicle id="E_S_36" type="standard_car" route="E_S" depart="130.0" departLane="random" departSpeed="10" > <stop lane="TL2S_0" endPos="750" duration="0"/> </vehicle>
    <vehicle id="W_S_37" type="standard_car" route="W_S" depart="130.0" departLane="random" departSpeed="10" > <stop lane="TL2S_0" endPos="750" duration="0"/> </vehicle>
    <vehicle id="2_S_2_N_38" type="standard_car" route="2_S_2_N" depart="136.0" departLane="random" departSpeed="10" > <stop lane="2_TL2N_0" endPos="750" duration="0"/> </vehicle>
    <vehicle id="2_N_W_39" type="standard_car" route="2_N_W" depart="137.0" departLane="random" departSpeed="10" > <stop lane="TL2W_0" endPos="750" duration="0"/> </vehicle>
    <vehicle id="2_S_E_40" type="standard_car" route="2_S_E" depart="139.0" departLane="random" departSpeed="10" > <stop lane="2_TL2E_0" endPos="750" duration="0"/> </vehicle>
    <vehicle id="E_2_N_41" type="standard_car" route="E_2_N" depart="141.0" departLane="random" departSpeed="10" > <stop lane="2_TL2N_0" endPos="750" duration="0"/> </vehicle>
    <vehicle id="W_E_42" type="standard_car" route="W_E" depart="144.0" departLane="random" departSpeed="10" > <stop lane="2_TL2E_0" endPos="750" duration="0"/> </vehicle>
    <vehicle id="W_E_43" type="standard_car" route="W_E" depart="145.0" departLane="random" departSpeed="10" > <stop lane="2_TL2E_0" endPos="750" duration="0"/> </vehicle>
    <vehicle id="N_S_44" type="standard_car" route="N_S" depart="147.0" departLane="random" departSpeed="10"> <stop lane="TL2S_0" endPos="750" duration="0"/> </vehicle>
    <vehicle id="W_2_N_45" type="standard_car" route="W_2_N" depart="149.0" departLane="random" departSpeed="10" > <stop lane="2_TL2N_0" endPos="750" duration="0"/> </vehicle>
    <vehicle id="W_2_S_46" type="standard_car" route="W_2_S" depart="149.0" departLane="random" departSpeed="10" > <stop lane="2_TL2S_0" endPos="750" duration="0"/> </vehicle>
    <vehicle id="S_N_47" type="standard_car" route="S_N" depart="150.0" departLane="random" departSpeed="10" > <stop lane="TL2N_0" endPos="750" duration="0"/> </vehicle>
    <vehicle id="2_S_2_N_48" type="standard_car" route="2_S_2_N" depart="156.0" departLane="random" departSpeed="10" > <stop lane="2_TL2N_0" endPos="750" duration="0"/> </vehicle>
    <vehicle id="W_2_N_49" type="standard_car" route="W_2_N" depart="156.0" departLane="random" departSpeed="10" > <stop lane="2_TL2N_0" endPos="750" duration="0"/> </vehicle>
    <vehicle id="2_N_S_50" type="standard_car" route="2_N_S" depart="157.0" departLane="random" departSpeed="10" > <stop lane="TL2S_0" endPos="750" duration="0"/> </vehicle>
    <vehicle id="N_S_51" type="standard_car" route="N_S" depart="158.0" departLane="random" departSpeed="10"> <stop lane="TL2S_0" endPos="750" duration="0"/> </vehicle>
    <vehicle id="2_N_2_S_52" type="standard_car" route="2_N_2_S" depart="158.0" departLane="random" departSpeed="10" > <stop lane="2_TL2S_0" endPos="750" duration="0"/> </vehicle>
    <vehicle id="S_N_53" type="standard_car" route="S_N" depart="159.0" departLane="random" departSpeed="10" > <stop lane="TL2N_0" endPos="750" duration="0"/> </vehicle>
    <vehicle id="S_W_54" type="standard_car" route="S_W" depart="159.0" departLane="random" departSpeed="10" > <stop lane="TL2W_0" endPos="750" duration="0"/> </vehicle>
    <vehicle id="S_N_55" type="standard_car" route="S_N" depart="162.0" departLane="random" departSpeed="10" > <stop lane="TL2N_0" endPos="750" duration="0"/> </vehicle>
    <vehicle id="W_E_56" type="standard_car" route="W_E" depart="162.0" departLane="random" departSpeed="10" > <stop lane="2_TL2E_0" endPos="750" duration="0"/> </vehicle>
    <vehicle id="2_N_2_S_57" type="standard_car" route="2_N_2_S" depart="164.0" departLane="random" departSpeed="10" > <stop lane="2_TL2S_0" endPos="750" duration="0"/> </vehicle>
    <vehicle id="2_S_2_N_58" type="standard_car" route="2_S_2_N" depart="166.0" departLane="random" departSpeed="10" > <stop lane="2_TL2N_0" endPos="750" duration="0"/> </vehicle>
    <vehicle id="N_2_S_59" type="standard_car" route="N_2_S" depart="168.0" departLane="random" departSpeed="10" > <stop lane="2_TL2S_0" endPos="750" duration="0"/> </vehicle>
    <vehicle id="2_N_W_60" type="standard_car" route="2_N_W" depart="169.0" departLane="random" departSpeed="10" > <stop lane="TL2W_0" endPos="750" duration="0"/> </vehicle>
    <vehicle id="W_E_61" type="standard_car" route="W_E" depart="170.0" departLane="random" departSpeed="10" > <stop lane="2_TL2E_0" endPos="750" duration="0"/> </vehicle>
    <vehicle id="2_N_2_S_62" type="standard_car" route="2_N_2_S" depart="170.0" departLane="random" departSpeed="10" > <stop lane="2_TL2S_0" endPos="750" duration="0"/> </vehicle>
    <vehicle id="2_S_2_N_63" type="standard_car" route="2_S_2_N" depart="173.0" departLane="random" departSpeed="10" > <stop lane="2_TL2N_0" endPos="750" duration="0"/> </vehicle>
    <vehicle id="E_W_64" type="standard_car" route="E_W" depart="173.0" departLane="random" departSpeed="10" > <stop lane="TL2W_0" endPos="750" duration="0"/> </vehicle>
    <vehicle id="N_S_65" type="standard_car" route="N_S" depart="174.0" departLane="random" departSpeed="10"> <stop lane="TL2S_0" endPos="750" duration="0"/> </vehicle>
    <vehicle id="E_S_66" type="standard_car" route="E_S" depart="176.0" departLane="random" departSpeed="10" > <stop lane="TL2S_0" endPos="750" duration="0"/> </vehicle>
    <vehicle id="W_2_N_67" type="standard_car" route="W_2_N" depart="177.0" departLane="random" departSpeed="10" > <stop lane="2_TL2N_0" endPos="750" duration="0"/> </vehicle>
    <vehicle id="2_N_2_S_68" type="standard_car" route="2_N_2_S" depart="177.0" departLane="random" departSpeed="10" > <stop lane="2_TL2S_0" endPos="750" duration="0"/> </vehicle>
    <vehicle id="W_E_69" type="standard_car" route="W_E" depart="177.0" departLane="random" departSpeed="10" > <stop lane="2_TL2E_0" endPos="750" duration="0"/> </vehicle>
    <vehicle id="E_N_70" type="standard_car" route="E_N" depart="178.0" departLane="random" departSpeed="10"> <stop lane="TL2N_0" endPos="750" duration="0"/> </vehicle>
    <vehicle id="E_2_S_71" type="standard_car" route="E_2_S" depart="179.0" departLane="random" departSpeed="10"  > <stop lane="2_TL2S_0" endPos="750" duration="0"/> </vehicle>
    <vehicle id="W_2_N_72" type="standard_car" route="W_2_N" depart="181.0" departLane="random" departSpeed="10" > <stop lane="2_TL2N_0" endPos="750" duration="0"/> </vehicle>
    <vehicle id="W_S_73" type="standard_car" route="W_S" depart="182.0" departLane="random" departSpeed="10" > <stop lane="TL2S_0" endPos="750" duration="0"/> </vehicle>
    <vehicle id="E_2_N_74" type="standard_car" route="E_2_N" depart="183.0" departLane="random" departSpeed="10" > <stop lane="2_TL2N_0" endPos="750" duration="0"/> </vehicle>
    <vehicle id="N_S_75" type="standard_car" route="N_S" depart="185.0" departLane="random" departSpeed="10"> <stop lane="TL2S_0" endPos="750" duration="0"/> </vehicle>
    <vehicle id="2_N_W_76" type="standard_car" route="2_N_W" depart="186.0" departLane="random" departSpeed="10" > <stop lane="TL2W_0" endPos="750" duration="0"/> </vehicle>
    <vehicle id="W_2_N_77" type="standard_car" route="W_2_N" depart="187.0" departLane="random" departSpeed="10" > <stop lane="2_TL2N_0" endPos="750" duration="0"/> </vehicle>
    <vehicle id="E_N_78" type="standard_car" route="E_N" depart="188.0" departLane="random" departSpeed="10"> <stop lane="TL2N_0" endPos="750" duration="0"/> </vehicle>
    <vehicle id="S_E_79" type="standard_car" route="S_E" depart="188.0" departLane="random" departSpeed="10" > <stop lane="2_TL2E_0" endPos="750" duration="0"/> </vehicle>
    <vehicle id="2_N_2_S_80" type="standard_car" route="2_N_2_S" depart="188.0" departLane="random" departSpeed="10" > <stop lane="2_TL2S_0" endPos="750" duration="0"/> </vehicle>
    <vehicle id="2_N_E_81" type="standard_car" route="2_N_E" depart="189.0" departLane="random" departSpeed="10" > <stop lane="2_TL2E_0" endPos="750" duration="0"/> </vehicle>
    <vehicle id="2_S_S_82" type="standard_car" route="2_S_S" depart="190.0" departLane="random" departSpeed="10" > <stop lane="TL2S_0" endPos="750" duration="0"/> </vehicle>
    <vehicle id="E_N_83" type="standard_car" route="E_N" depart="190.0" departLane="random" departSpeed="10"> <stop lane="TL2N_0" endPos="750" duration="0"/> </vehicle>
    <vehicle id="S_N_84" type="standard_car" route="S_N" depart="192.0" departLane="random" departSpeed="10" > <stop lane="TL2N_0" endPos="750" duration="0"/> </vehicle>
    <vehicle id="2_S_2_N_85" type="standard_car" route="2_S_2_N" depart="193.0" departLane="random" departSpeed="10" > <stop lane="2_TL2N_0" endPos="750" duration="0"/> </vehicle>
    <vehicle id="S_N_86" type="standard_car" route="S_N" depart="194.0" departLane="random" departSpeed="10" > <stop lane="TL2N_0" endPos="750" duration="0"/> </vehicle>
    <vehicle id="2_S_2_N_87" type="standard_car" route="2_S_2_N" depart="195.0" departLane="random" departSpeed="10" > <stop lane="2_TL2N_0" endPos="750" duration="0"/> </vehicle>
    <vehicle id="W_E_88" type="standard_car" route="W_E" depart="196.0" departLane="random" departSpeed="10" > <stop lane="2_TL2E_0" endPos="750" duration="0"/> </vehicle>
    <vehicle id="W_2_N_89" type="standard_car" route="W_2_N" depart="198.0" departLane="random" departSpeed="10" > <stop lane="2_TL2N_0" endPos="750" duration="0"/> </vehicle>
    <vehicle id="2_S_2_N_90" type="standard_car" route="2_S_2_N" depart="201.0" departLane="random" departSpeed="10" > <stop lane="2_TL2N_0" endPos="750" duration="0"/> </vehicle>
    <vehicle id="W_2_N_91" type="standard_car" route="W_2_N" depart="206.0" departLane="random" departSpeed="10" > <stop lane="2_TL2N_0" endPos="750" duration="0"/> </vehicle>
    <vehicle id="E_N_92" type="standard_car" route="E_N" depart="207.0" departLane="random" departSpeed="10"> <stop lane="TL2N_0" endPos="750" duration="0"/> </vehicle>
    <vehicle id="W_N_93" type="standard_car" route="W_N" depart="207.0" departLane="random" departSpeed="10"> <stop lane="TL2N_0" endPos="750" duration="0"/> </vehicle>
    <vehicle id="N_S_94" type="standard_car" route="N_S" depart="212.0" departLane="random" departSpeed="10"> <stop lane="TL2S_0" endPos="750" duration="0"/> </vehicle>
    <vehicle id="N_S_95" type="standard_car" route="N_S" depart="212.0" departLane="random" departSpeed="10"> <stop lane="TL2S_0" endPos="750" duration="0"/> </vehicle>
    <vehicle id="W_E_96" type="standard_car" route="W_E" depart="213.0" departLane="random" departSpeed="10" > <stop lane="2_TL2E_0" endPos="750" duration="0"/> </vehicle>
    <vehicle id="S_2_S_97" type="standard_car" route="S_2_S" depart="213.0" departLane="random" departSpeed="10" > <stop lane="2_TL2S_0" endPos="750" duration="0"/> </vehicle>
    <vehicle id="2_N_2_S_98" type="standard_car" route="2_N_2_S" depart="213.0" departLane="random" departSpeed="10" > <stop lane="2_TL2S_0" endPos="750" duration="0"/> </vehicle>
    <vehicle id="E_S_99" type="standard_car" route="E_S" depart="213.0" departLane="random" departSpeed="10" > <stop lane="TL2S_0" endPos="750" duration="0"/> </vehicle>
    <vehicle id="E_S_100" type="standard_car" route="E_S" depart="213.0" departLane="random" departSpeed="10" > <stop lane="TL2S_0" endPos="750" duration="0"/> </vehicle>
    <vehicle id="S_W_101" type="standard_car" route="S_W" depart="214.0" departLane="random" departSpeed="10" > <stop lane="TL2W_0" endPos="750" duration="0"/> </vehicle>
    <vehicle id="W_E_102" type="standard_car" route="W_E" depart="215.0" departLane="random" departSpeed="10" > <stop lane="2_TL2E_0" endPos="750" duration="0"/> </vehicle>
    <vehicle id="N_S_103" type="standard_car" route="N_S" depart="215.0" departLane="random" departSpeed="10"> <stop lane="TL2S_0" endPos="750" duration="0"/> </vehicle>
    <vehicle id="W_E_104" type="standard_car" route="W_E" depart="216.0" departLane="random" departSpeed="10" > <stop lane="2_TL2E_0" endPos="750" duration="0"/> </vehicle>
    <vehicle id="E_N_105" type="standard_car" route="E_N" depart="216.0" departLane="random" departSpeed="10"> <stop lane="TL2N_0" endPos="750" duration="0"/> </vehicle>
    <vehicle id="E_N_106" type="standard_car" route="E_N" depart="216.0" departLane="random" departSpeed="10"> <stop lane="TL2N_0" endPos="750" duration="0"/> </vehicle>
    <vehicle id="N_E_107" type="standard_car" route="N_E" depart="218.0" departLane="random" departSpeed="10"> <stop lane="2_TL2E_0" endPos="750" duration="0"/> </vehicle>
    <vehicle id="2_S_2_N_108" type="standard_car" route="2_S_2_N" depart="218.0" departLane="random" departSpeed="10" > <stop lane="2_TL2N_0" endPos="750" duration="0"/> </vehicle>
    <vehicle id="W_E_109" type="standard_car" route="W_E" depart="220.0" departLane="random" departSpeed="10" > <stop lane="2_TL2E_0" endPos="750" duration="0"/> </vehicle>
    <vehicle id="W_2_N_110" type="standard_car" route="W_2_N" depart="221.0" departLane="random" departSpeed="10" > <stop lane="2_TL2N_0" endPos="750" duration="0"/> </vehicle>
    <vehicle id="W_2_N_111" type="standard_car" route="W_2_N" depart="223.0" departLane="random" departSpeed="10" > <stop lane="2_TL2N_0" endPos="750" duration="0"/> </vehicle>
    <vehicle id="N_S_112" type="standard_car" route="N_S" depart="224.0" departLane="random" departSpeed="10"> <stop lane="TL2S_0" endPos="750" duration="0"/> </vehicle>
    <vehicle id="W_2_N_113" type="standard_car" route="W_2_N" depart="226.0" departLane="random" departSpeed="10" > <stop lane="2_TL2N_0" endPos="750" duration="0"/> </vehicle>
    <vehicle id="2_N_N_114" type="standard_car" route="2_N_N" depart="226.0" departLane="random" departSpeed="10" > <stop lane="TL2N_0" endPos="750" duration="0"/> </vehicle>
    <vehicle id="E_N_115" type="standard_car" route="E_N" depart="227.0" departLane="random" departSpeed="10"> <stop lane="TL2N_0" endPos="750" duration="0"/> </vehicle>
    <vehicle id="W_2_N_116" type="standard_car" route="W_2_N" depart="228.0" departLane="random" departSpeed="10" > <stop lane="2_TL2N_0" endPos="750" duration="0"/> </vehicle>
    <vehicle id="E_W_117" type="standard_car" route="E_W" depart="229.0" departLane="random" departSpeed="10" > <stop lane="TL2W_0" endPos="750" duration="0"/> </vehicle>
    <vehicle id="W_N_118" type="standard_car" route="W_N" depart="229.0" departLane="random" departSpeed="10"> <stop lane="TL2N_0" endPos="750" duration="0"/> </vehicle>
    <vehicle id="W_2_N_119" type="standard_car" route="W_2_N" depart="230.0" departLane="random" departSpeed="10" > <stop lane="2_TL2N_0" endPos="750" duration="0"/> </vehicle>
    <vehicle id="W_2_S_120" type="standard_car" route="W_2_S" depart="231.0" departLane="random" departSpeed="10" > <stop lane="2_TL2S_0" endPos="750" duration="0"/> </vehicle>
    <vehicle id="E_W_121" type="standard_car" route="E_W" depart="232.0" departLane="random" departSpeed="10" > <stop lane="TL2W_0" endPos="750" duration="0"/> </vehicle>
    <vehicle id="S_N_122" type="standard_car" route="S_N" depart="232.0" departLane="random" departSpeed="10" > <stop lane="TL2N_0" endPos="750" duration="0"/> </vehicle>
    <vehicle id="E_N_123" type="standard_car" route="E_N" depart="233.0" departLane="random" departSpeed="10"> <stop lane="TL2N_0" endPos="750" duration="0"/> </vehicle>
    <vehicle id="2_N_N_124" type="standard_car" route="2_N_N" depart="233.0" departLane="random" departSpeed="10" > <stop lane="TL2N_0" endPos="750" duration="0"/> </vehicle>
    <vehicle id="E_N_125" type="standard_car" route="E_N" depart="234.0" departLane="random" departSpeed="10"> <stop lane="TL2N_0" endPos="750" duration="0"/> </vehicle>
    <vehicle id="2_N_2_S_126" type="standard_car" route="2_N_2_S" depart="235.0" departLane="random" departSpeed="10" > <stop lane="2_TL2S_0" endPos="750" duration="0"/> </vehicle>
    <vehicle id="W_2_S_127" type="standard_car" route="W_2_S" depart="236.0" departLane="random" departSpeed="10" > <stop lane="2_TL2S_0" endPos="750" duration="0"/> </vehicle>
    <vehicle id="W_2_N_128" type="standard_car" route="W_2_N" depart="237.0" departLane="random" departSpeed="10" > <stop lane="2_TL2N_0" endPos="750" duration="0"/> </vehicle>
    <vehicle id="2_S_2_N_129" type="standard_car" route="2_S_2_N" depart="237.0" departLane="random" departSpeed="10" > <stop lane="2_TL2N_0" endPos="750" duration="0"/> </vehicle>
    <vehicle id="2_N_2_S_130" type="standard_car" route="2_N_2_S" depart="237.0" departLane="random" departSpeed="10" > <stop lane="2_TL2S_0" endPos="750" duration="0"/> </vehicle>
    <vehicle id="W_E_131" type="standard_car" route="W_E" depart="238.0" departLane="random" departSpeed="10" > <stop lane="2_TL2E_0" endPos="750" duration="0"/> </vehicle>
    <vehicle id="S_2_S_132" type="standard_car" route="S_2_S" depart="241.0" departLane="random" departSpeed="10" > <stop lane="2_TL2S_0" endPos="750" duration="0"/> </vehicle>
    <vehicle id="E_S_133" type="standard_car" route="E_S" depart="242.0" departLane="random" departSpeed="10" > <stop lane="TL2S_0" endPos="750" duration="0"/> </vehicle>
    <vehicle id="E_S_134" type="standard_car" route="E_S" depart="243.0" departLane="random" departSpeed="10" > <stop lane="TL2S_0" endPos="750" duration="0"/> </vehicle>
    <vehicle id="W_2_S_135" type="standard_car" route="W_2_S" depart="246.0" departLane="random" departSpeed="10" > <stop lane="2_TL2S_0" endPos="750" duration="0"/> </vehicle>
    <vehicle id="N_2_S_136" type="standard_car" route="N_2_S" depart="246.0" departLane="random" departSpeed="10" > <stop lane="2_TL2S_0" endPos="750" duration="0"/> </vehicle>
    <vehicle id="2_S_2_N_137" type="standard_car" route="2_S_2_N" depart="247.0" departLane="random" departSpeed="10" > <stop lane="2_TL2N_0" endPos="750" duration="0"/> </vehicle>
    <vehicle id="W_E_138" type="standard_car" route="W_E" depart="248.0" departLane="random" departSpeed="10" > <stop lane="2_TL2E_0" endPos="750" duration="0"/> </vehicle>
    <vehicle id="N_W_139" type="standard_car" route="N_W" depart="248.0" departLane="random" departSpeed="10" > <stop lane="TL2W_0" endPos="750" duration="0"/> </vehicle>
    <vehicle id="E_S_140" type="standard_car" route="E_S" depart="249.0" departLane="random" departSpeed="10" > <stop lane="TL2S_0" endPos="750" duration="0"/> </vehicle>
    <vehicle id="W_2_S_141" type="standard_car" route="W_2_S" depart="249.0" departLane="random" departSpeed="10" > <stop lane="2_TL2S_0" endPos="750" duration="0"/> </vehicle>
    <vehicle id="W_2_S_142" type="standard_car" route="W_2_S" depart="251.0" departLane="random" departSpeed="10" > <stop lane="2_TL2S_0" endPos="750" duration="0"/> </vehicle>
    <vehicle id="W_2_S_143" type="standard_car" route="W_2_S" depart="252.0" departLane="random" departSpeed="10" > <stop lane="2_TL2S_0" endPos="750" duration="0"/> </vehicle>
    <vehicle id="N_E_144" type="standard_car" route="N_E" depart="255.0" departLane="random" departSpeed="10"> <stop lane="2_TL2E_0" endPos="750" duration="0"/> </vehicle>
    <vehicle id="E_W_145" type="standard_car" route="E_W" depart="255.0" departLane="random" departSpeed="10" > <stop lane="TL2W_0" endPos="750" duration="0"/> </vehicle>
    <vehicle id="2_S_2_N_146" type="standard_car" route="2_S_2_N" depart="256.0" departLane="random" departSpeed="10" > <stop lane="2_TL2N_0" endPos="750" duration="0"/> </vehicle>
    <vehicle id="W_2_N_147" type="standard_car" route="W_2_N" depart="256.0" departLane="random" departSpeed="10" > <stop lane="2_TL2N_0" endPos="750" duration="0"/> </vehicle>
    <vehicle id="W_2_N_148" type="standard_car" route="W_2_N" depart="257.0" departLane="random" departSpeed="10" > <stop lane="2_TL2N_0" endPos="750" duration="0"/> </vehicle>
    <vehicle id="2_N_2_S_149" type="standard_car" route="2_N_2_S" depart="258.0" departLane="random" departSpeed="10" > <stop lane="2_TL2S_0" endPos="750" duration="0"/> </vehicle>
    <vehicle id="N_2_N_150" type="standard_car" route="N_2_N" depart="259.0" departLane="random" departSpeed="10" > <stop lane="2_TL2N_0" endPos="750" duration="0"/> </vehicle>
    <vehicle id="2_N_S_151" type="standard_car" route="2_N_S" depart="261.0" departLane="random" departSpeed="10" > <stop lane="TL2S_0" endPos="750" duration="0"/> </vehicle>
    <vehicle id="W_2_N_152" type="standard_car" route="W_2_N" depart="262.0" departLane="random" departSpeed="10" > <stop lane="2_TL2N_0" endPos="750" duration="0"/> </vehicle>
    <vehicle id="N_E_153" type="standard_car" route="N_E" depart="263.0" departLane="random" departSpeed="10"> <stop lane="2_TL2E_0" endPos="750" duration="0"/> </vehicle>
    <vehicle id="E_W_154" type="standard_car" route="E_W" depart="263.0" departLane="random" departSpeed="10" > <stop lane="TL2W_0" endPos="750" duration="0"/> </vehicle>
    <vehicle id="2_S_2_N_155" type="standard_car" route="2_S_2_N" depart="264.0" departLane="random" departSpeed="10" > <stop lane="2_TL2N_0" endPos="750" duration="0"/> </vehicle>
    <vehicle id="W_2_S_156" type="standard_car" route="W_2_S" depart="266.0" departLane="random" departSpeed="10" > <stop lane="2_TL2S_0" endPos="750" duration="0"/> </vehicle>
    <vehicle id="2_N_N_157" type="standard_car" route="2_N_N" depart="266.0" departLane="random" departSpeed="10" > <stop lane="TL2N_0" endPos="750" duration="0"/> </vehicle>
    <vehicle id="E_W_158" type="standard_car" route="E_W" depart="268.0" departLane="random" departSpeed="10" > <stop lane="TL2W_0" endPos="750" duration="0"/> </vehicle>
    <vehicle id="2_N_W_159" type="standard_car" route="2_N_W" depart="268.0" departLane="random" departSpeed="10" > <stop lane="TL2W_0" endPos="750" duration="0"/> </vehicle>
    <vehicle id="S_2_N_160" type="standard_car" route="S_2_N" depart="270.0" departLane="random" departSpeed="10" > <stop lane="2_TL2N_0" endPos="750" duration="0"/> </vehicle>