<?xml version="1.0" encoding="UTF-8"?>

<configuration xmlns:xsi="http://www.w3.org/2001/XMLSchema-instance" xsi:noNamespaceSchemaLocation="http://sumo.dlr.de/xsd/sumoConfiguration.xsd">

    <input>
        <net-file value="environment.net.xml"/>
        <route-files value="episode_routes.rou.xml"/>
    </input>

    <time>
      <begin value="500"/>
      <end value="100000000000000"/>
    </time>

</configuration>
