<routes>
            <vType accel="1.0" decel="4.5" id="standard_car" length="5.0" minGap="2.5" maxSpeed="25" sigma="0.5" />

            <route id="W_N" edges="W2TL TL2N"/>
            <route id="W_E" edges="W2TL TL2E"/>
            <route id="W_S" edges="W2TL TL2S"/>
            <route id="N_W" edges="N2TL TL2W"/>
            <route id="N_E" edges="N2TL TL2E"/>
            <route id="N_S" edges="N2TL TL2S"/>
            <route id="E_W" edges="E2TL TL2W"/>
            <route id="E_N" edges="E2TL TL2N"/>
            <route id="E_S" edges="E2TL TL2S"/>
            <route id="S_W" edges="S2TL TL2W"/>
            <route id="S_N" edges="S2TL TL2N"/>
            <route id="S_E" edges="S2TL TL2E"/>
    <vehicle id="W_E_0" type="standard_car" route="W_E" depart="35.0" departLane="random" departSpeed="10" arrivalLane="0"> <stop lane="TL2E_0" endPos="750" duration="5"/> </vehicle>
    <vehicle id="E_W_1" type="standard_car" route="E_W" depart="40.0" departLane="random" departSpeed="10" arrivalLane="2"> <stop lane="TL2W_2" endPos="750" duration="5"/> </vehicle>
    <vehicle id="N_S_2" type="standard_car" route="N_S" depart="47.0" departLane="random" departSpeed="10" arrivalLane="3"> <stop lane="TL2S_3" endPos="750" duration="5"/> </vehicle>
    <vehicle id="N_S_3" type="standard_car" route="N_S" depart="59.0" departLane="random" departSpeed="10" arrivalLane="3"> <stop lane="TL2S_3" endPos="750" duration="5"/> </vehicle>
    <vehicle id="E_W_4" type="standard_car" route="E_W" depart="62.0" departLane="random" departSpeed="10" arrivalLane="3"> <stop lane="TL2W_3" endPos="750" duration="5"/> </vehicle>
    <vehicle id="S_N_5" type="standard_car" route="S_N" depart="65.0" departLane="random" departSpeed="10" arrivalLane="1"> <stop lane="TL2N_1" endPos="750" duration="5"/> </vehicle>
    <vehicle id="S_W_6" type="standard_car" route="S_W" depart="70.0" departLane="random" departSpeed="10" arrivalLane="2"> <stop lane="TL2W_2" endPos="750" duration="5"/> </vehicle>
    <vehicle id="N_W_7" type="standard_car" route="N_W" depart="73.0" departLane="random" departSpeed="10" arrivalLane="3"> <stop lane="TL2W_3" endPos="750" duration="5"/> </vehicle>
    <vehicle id="N_S_8" type="standard_car" route="N_S" depart="74.0" departLane="random" departSpeed="10" arrivalLane="0"> <stop lane="TL2S_0" endPos="750" duration="5"/> </vehicle>
    <vehicle id="N_S_9" type="standard_car" route="N_S" depart="83.0" departLane="random" departSpeed="10" arrivalLane="2"> <stop lane="TL2S_2" endPos="750" duration="5"/> </vehicle>
    <vehicle id="E_W_10" type="standard_car" route="E_W" depart="85.0" departLane="random" departSpeed="10" arrivalLane="0"> <stop lane="TL2W_0" endPos="750" duration="5"/> </vehicle>
    <vehicle id="E_W_11" type="standard_car" route="E_W" depart="85.0" departLane="random" departSpeed="10" arrivalLane="2"> <stop lane="TL2W_2" endPos="750" duration="5"/> </vehicle>
    <vehicle id="N_W_12" type="standard_car" route="N_W" depart="89.0" departLane="random" departSpeed="10" arrivalLane="2"> <stop lane="TL2W_2" endPos="750" duration="5"/> </vehicle>
    <vehicle id="N_S_13" type="standard_car" route="N_S" depart="95.0" departLane="random" departSpeed="10" arrivalLane="0"> <stop lane="TL2S_0" endPos="750" duration="5"/> </vehicle>
    <vehicle id="E_N_14" type="standard_car" route="E_N" depart="106.0" departLane="random" departSpeed="10" arrivalLane="1"> <stop lane="TL2N_1" endPos="750" duration="5"/> </vehicle>
    <vehicle id="N_S_15" type="standard_car" route="N_S" depart="108.0" departLane="random" departSpeed="10" arrivalLane="2"> <stop lane="TL2S_2" endPos="750" duration="6"/> </vehicle>
    <vehicle id="S_W_16" type="standard_car" route="S_W" depart="114.0" departLane="random" departSpeed="10" arrivalLane="1"> <stop lane="TL2W_1" endPos="750" duration="6"/> </vehicle>
    <vehicle id="W_E_17" type="standard_car" route="W_E" depart="115.0" departLane="random" departSpeed="10" arrivalLane="1"> <stop lane="TL2E_1" endPos="750" duration="6"/> </vehicle>
    <vehicle id="W_E_18" type="standard_car" route="W_E" depart="118.0" departLane="random" departSpeed="10" arrivalLane="0"> <stop lane="TL2E_0" endPos="750" duration="6"/> </vehicle>
    <vehicle id="S_W_19" type="standard_car" route="S_W" depart="121.0" departLane="random" departSpeed="10" arrivalLane="2"> <stop lane="TL2W_2" endPos="750" duration="6"/> </vehicle>
    <vehicle id="S_N_20" type="standard_car" route="S_N" depart="121.0" departLane="random" departSpeed="10" arrivalLane="2"> <stop lane="TL2N_2" endPos="750" duration="6"/> </vehicle>
    <vehicle id="W_N_21" type="standard_car" route="W_N" depart="125.0" departLane="random" departSpeed="10" arrivalLane="2"> <stop lane="TL2N_2" endPos="750" duration="6"/> </vehicle>
    <vehicle id="N_S_22" type="standard_car" route="N_S" depart="131.0" departLane="random" departSpeed="10" arrivalLane="3"> <stop lane="TL2S_3" endPos="750" duration="6"/> </vehicle>
    <vehicle id="E_N_23" type="standard_car" route="E_N" depart="134.0" departLane="random" departSpeed="10" arrivalLane="1"> <stop lane="TL2N_1" endPos="750" duration="6"/> </vehicle>
    <vehicle id="S_N_24" type="standard_car" route="S_N" depart="138.0" departLane="random" departSpeed="10" arrivalLane="3"> <stop lane="TL2N_3" endPos="750" duration="6"/> </vehicle>
    <vehicle id="S_N_25" type="standard_car" route="S_N" depart="140.0" departLane="random" departSpeed="10" arrivalLane="0"> <stop lane="TL2N_0" endPos="750" duration="6"/> </vehicle>
    <vehicle id="W_E_26" type="standard_car" route="W_E" depart="144.0" departLane="random" departSpeed="10" arrivalLane="2"> <stop lane="TL2E_2" endPos="750" duration="6"/> </vehicle>
    <vehicle id="W_E_27" type="standard_car" route="W_E" depart="147.0" departLane="random" departSpeed="10" arrivalLane="0"> <stop lane="TL2E_0" endPos="750" duration="6"/> </vehicle>
    <vehicle id="E_W_28" type="standard_car" route="E_W" depart="152.0" departLane="random" departSpeed="10" arrivalLane="1"> <stop lane="TL2W_1" endPos="750" duration="6"/> </vehicle>
    <vehicle id="S_W_29" type="standard_car" route="S_W" depart="157.0" departLane="random" departSpeed="10" arrivalLane="2"> <stop lane="TL2W_2" endPos="750" duration="6"/> </vehicle>
    <vehicle id="N_S_30" type="standard_car" route="N_S" depart="158.0" departLane="random" departSpeed="10" arrivalLane="2"> <stop lane="TL2S_2" endPos="750" duration="6"/> </vehicle>
    <vehicle id="N_S_31" type="standard_car" route="N_S" depart="160.0" departLane="random" departSpeed="10" arrivalLane="2"> <stop lane="TL2S_2" endPos="750" duration="6"/> </vehicle>
    <vehicle id="E_W_32" type="standard_car" route="E_W" depart="165.0" departLane="random" departSpeed="10" arrivalLane="2"> <stop lane="TL2W_2" endPos="750" duration="6"/> </vehicle>
    <vehicle id="N_S_33" type="standard_car" route="N_S" depart="173.0" departLane="random" departSpeed="10" arrivalLane="1"> <stop lane="TL2S_1" endPos="750" duration="6"/> </vehicle>
    <vehicle id="W_E_34" type="standard_car" route="W_E" depart="174.0" departLane="random" departSpeed="10" arrivalLane="0"> <stop lane="TL2E_0" endPos="750" duration="6"/> </vehicle>
    <vehicle id="E_W_35" type="standard_car" route="E_W" depart="177.0" departLane="random" departSpeed="10" arrivalLane="2"> <stop lane="TL2W_2" endPos="750" duration="6"/> </vehicle>
    <vehicle id="S_N_36" type="standard_car" route="S_N" depart="178.0" departLane="random" departSpeed="10" arrivalLane="1"> <stop lane="TL2N_1" endPos="750" duration="6"/> </vehicle>
    <vehicle id="S_N_37" type="standard_car" route="S_N" depart="179.0" departLane="random" departSpeed="10" arrivalLane="3"> <stop lane="TL2N_3" endPos="750" duration="6"/> </vehicle>
    <vehicle id="E_W_38" type="standard_car" route="E_W" depart="181.0" departLane="random" departSpeed="10" arrivalLane="1"> <stop lane="TL2W_1" endPos="750" duration="6"/> </vehicle>
    <vehicle id="W_E_39" type="standard_car" route="W_E" depart="181.0" departLane="random" departSpeed="10" arrivalLane="3"> <stop lane="TL2E_3" endPos="750" duration="6"/> </vehicle>
    <vehicle id="E_W_40" type="standard_car" route="E_W" depart="182.0" departLane="random" departSpeed="10" arrivalLane="2"> <stop lane="TL2W_2" endPos="750" duration="6"/> </vehicle>
    <vehicle id="N_E_41" type="standard_car" route="N_E" depart="188.0" departLane="random" departSpeed="10" arrivalLane="1"> <stop lane="TL2E_1" endPos="750" duration="6"/> </vehicle>
    <vehicle id="W_E_42" type="standard_car" route="W_E" depart="192.0" departLane="random" departSpeed="10" arrivalLane="2"> <stop lane="TL2E_2" endPos="750" duration="6"/> </vehicle>
    <vehicle id="S_N_43" type="standard_car" route="S_N" depart="192.0" departLane="random" departSpeed="10" arrivalLane="3"> <stop lane="TL2N_3" endPos="750" duration="6"/> </vehicle>
    <vehicle id="W_E_44" type="standard_car" route="W_E" depart="193.0" departLane="random" departSpeed="10" arrivalLane="3"> <stop lane="TL2E_3" endPos="750" duration="6"/> </vehicle>
    <vehicle id="W_E_45" type="standard_car" route="W_E" depart="195.0" departLane="random" departSpeed="10" arrivalLane="0"> <stop lane="TL2E_0" endPos="750" duration="6"/> </vehicle>
    <vehicle id="N_S_46" type="standard_car" route="N_S" depart="199.0" departLane="random" departSpeed="10" arrivalLane="0"> <stop lane="TL2S_0" endPos="750" duration="6"/> </vehicle>
    <vehicle id="N_S_47" type="standard_car" route="N_S" depart="199.0" departLane="random" departSpeed="10" arrivalLane="3"> <stop lane="TL2S_3" endPos="750" duration="6"/> </vehicle>
    <vehicle id="N_S_48" type="standard_car" route="N_S" depart="201.0" departLane="random" departSpeed="10" arrivalLane="2"> <stop lane="TL2S_2" endPos="750" duration="6"/> </vehicle>
    <vehicle id="E_N_49" type="standard_car" route="E_N" depart="202.0" departLane="random" departSpeed="10" arrivalLane="0"> <stop lane="TL2N_0" endPos="750" duration="6"/> </vehicle>
    <vehicle id="W_E_50" type="standard_car" route="W_E" depart="202.0" departLane="random" departSpeed="10" arrivalLane="3"> <stop lane="TL2E_3" endPos="750" duration="6"/> </vehicle>
    <vehicle id="W_E_51" type="standard_car" route="W_E" depart="204.0" departLane="random" departSpeed="10" arrivalLane="1"> <stop lane="TL2E_1" endPos="750" duration="6"/> </vehicle>
    <vehicle id="N_S_52" type="standard_car" route="N_S" depart="205.0" departLane="random" departSpeed="10" arrivalLane="2"> <stop lane="TL2S_2" endPos="750" duration="6"/> </vehicle>
    <vehicle id="N_S_53" type="standard_car" route="N_S" depart="207.0" departLane="random" departSpeed="10" arrivalLane="0"> <stop lane="TL2S_0" endPos="750" duration="6"/> </vehicle>
    <vehicle id="W_E_54" type="standard_car" route="W_E" depart="211.0" departLane="random" departSpeed="10" arrivalLane="0"> <stop lane="TL2E_0" endPos="750" duration="6"/> </vehicle>
    <vehicle id="E_W_55" type="standard_car" route="E_W" depart="213.0" departLane="random" departSpeed="10" arrivalLane="0"> <stop lane="TL2W_0" endPos="750" duration="6"/> </vehicle>
    <vehicle id="S_N_56" type="standard_car" route="S_N" depart="213.0" departLane="random" departSpeed="10" arrivalLane="2"> <stop lane="TL2N_2" endPos="750" duration="6"/> </vehicle>
    <vehicle id="S_N_57" type="standard_car" route="S_N" depart="214.0" departLane="random" departSpeed="10" arrivalLane="3"> <stop lane="TL2N_3" endPos="750" duration="6"/> </vehicle>
    <vehicle id="S_N_58" type="standard_car" route="S_N" depart="214.0" departLane="random" departSpeed="10" arrivalLane="2"> <stop lane="TL2N_2" endPos="750" duration="6"/> </vehicle>
    <vehicle id="E_S_59" type="standard_car" route="E_S" depart="215.0" departLane="random" departSpeed="10" arrivalLane="0"> <stop lane="TL2S_0" endPos="750" duration="6"/> </vehicle>
    <vehicle id="S_N_60" type="standard_car" route="S_N" depart="217.0" departLane="random" departSpeed="10" arrivalLane="3"> <stop lane="TL2N_3" endPos="750" duration="6"/> </vehicle>
    <vehicle id="W_E_61" type="standard_car" route="W_E" depart="218.0" departLane="random" departSpeed="10" arrivalLane="2"> <stop lane="TL2E_2" endPos="750" duration="6"/> </vehicle>
    <vehicle id="W_E_62" type="standard_car" route="W_E" depart="219.0" departLane="random" departSpeed="10" arrivalLane="1"> <stop lane="TL2E_1" endPos="750" duration="6"/> </vehicle>
    <vehicle id="E_S_63" type="standard_car" route="E_S" depart="219.0" departLane="random" departSpeed="10" arrivalLane="0"> <stop lane="TL2S_0" endPos="750" duration="6"/> </vehicle>
    <vehicle id="E_W_64" type="standard_car" route="E_W" depart="221.0" departLane="random" departSpeed="10" arrivalLane="0"> <stop lane="TL2W_0" endPos="750" duration="6"/> </vehicle>
    <vehicle id="N_E_65" type="standard_car" route="N_E" depart="221.0" departLane="random" departSpeed="10" arrivalLane="0"> <stop lane="TL2E_0" endPos="750" duration="6"/> </vehicle>
    <vehicle id="S_N_66" type="standard_car" route="S_N" depart="227.0" departLane="random" departSpeed="10" arrivalLane="0"> <stop lane="TL2N_0" endPos="750" duration="6"/> </vehicle>
    <vehicle id="N_S_67" type="standard_car" route="N_S" depart="228.0" departLane="random" departSpeed="10" arrivalLane="3"> <stop lane="TL2S_3" endPos="750" duration="6"/> </vehicle>
    <vehicle id="W_E_68" type="standard_car" route="W_E" depart="229.0" departLane="random" departSpeed="10" arrivalLane="0"> <stop lane="TL2E_0" endPos="750" duration="6"/> </vehicle>
    <vehicle id="N_E_69" type="standard_car" route="N_E" depart="229.0" departLane="random" departSpeed="10" arrivalLane="3"> <stop lane="TL2E_3" endPos="750" duration="6"/> </vehicle>
    <vehicle id="N_S_70" type="standard_car" route="N_S" depart="233.0" departLane="random" departSpeed="10" arrivalLane="1"> <stop lane="TL2S_1" endPos="750" duration="6"/> </vehicle>
    <vehicle id="S_N_71" type="standard_car" route="S_N" depart="240.0" departLane="random" departSpeed="10" arrivalLane="3"> <stop lane="TL2N_3" endPos="750" duration="6"/> </vehicle>
    <vehicle id="W_E_72" type="standard_car" route="W_E" depart="240.0" departLane="random" departSpeed="10" arrivalLane="0"> <stop lane="TL2E_0" endPos="750" duration="6"/> </vehicle>
    <vehicle id="S_N_73" type="standard_car" route="S_N" depart="243.0" departLane="random" departSpeed="10" arrivalLane="1"> <stop lane="TL2N_1" endPos="750" duration="6"/> </vehicle>
    <vehicle id="N_S_74" type="standard_car" route="N_S" depart="245.0" departLane="random" departSpeed="10" arrivalLane="3"> <stop lane="TL2S_3" endPos="750" duration="6"/> </vehicle>
    <vehicle id="E_S_75" type="standard_car" route="E_S" depart="249.0" departLane="random" departSpeed="10" arrivalLane="1"> <stop lane="TL2S_1" endPos="750" duration="6"/> </vehicle>
    <vehicle id="E_S_76" type="standard_car" route="E_S" depart="252.0" departLane="random" departSpeed="10" arrivalLane="2"> <stop lane="TL2S_2" endPos="750" duration="6"/> </vehicle>
    <vehicle id="E_S_77" type="standard_car" route="E_S" depart="253.0" departLane="random" departSpeed="10" arrivalLane="2"> <stop lane="TL2S_2" endPos="750" duration="6"/> </vehicle>
    <vehicle id="N_E_78" type="standard_car" route="N_E" depart="253.0" departLane="random" departSpeed="10" arrivalLane="1"> <stop lane="TL2E_1" endPos="750" duration="6"/> </vehicle>
    <vehicle id="N_S_79" type="standard_car" route="N_S" depart="257.0" departLane="random" departSpeed="10" arrivalLane="0"> <stop lane="TL2S_0" endPos="750" duration="6"/> </vehicle>
    <vehicle id="W_E_80" type="standard_car" route="W_E" depart="257.0" departLane="random" departSpeed="10" arrivalLane="2"> <stop lane="TL2E_2" endPos="750" duration="6"/> </vehicle>
    <vehicle id="W_E_81" type="standard_car" route="W_E" depart="258.0" departLane="random" departSpeed="10" arrivalLane="1"> <stop lane="TL2E_1" endPos="750" duration="6"/> </vehicle>
    <vehicle id="S_N_82" type="standard_car" route="S_N" depart="258.0" departLane="random" departSpeed="10" arrivalLane="3"> <stop lane="TL2N_3" endPos="750" duration="6"/> </vehicle>
    <vehicle id="N_S_83" type="standard_car" route="N_S" depart="261.0" departLane="random" departSpeed="10" arrivalLane="1"> <stop lane="TL2S_1" endPos="750" duration="6"/> </vehicle>
    <vehicle id="W_E_84" type="standard_car" route="W_E" depart="268.0" departLane="random" departSpeed="10" arrivalLane="1"> <stop lane="TL2E_1" endPos="750" duration="6"/> </vehicle>
    <vehicle id="S_N_85" type="standard_car" route="S_N" depart="268.0" departLane="random" departSpeed="10" arrivalLane="3"> <stop lane="TL2N_3" endPos="750" duration="6"/> </vehicle>
    <vehicle id="N_S_86" type="standard_car" route="N_S" depart="269.0" departLane="random" departSpeed="10" arrivalLane="0"> <stop lane="TL2S_0" endPos="750" duration="6"/> </vehicle>
    <vehicle id="S_N_87" type="standard_car" route="S_N" depart="271.0" departLane="random" departSpeed="10" arrivalLane="1"> <stop lane="TL2N_1" endPos="750" duration="6"/> </vehicle>
    <vehicle id="E_W_88" type="standard_car" route="E_W" depart="274.0" departLane="random" departSpeed="10" arrivalLane="1"> <stop lane="TL2W_1" endPos="750" duration="6"/> </vehicle>
    <vehicle id="E_W_89" type="standard_car" route="E_W" depart="274.0" departLane="random" departSpeed="10" arrivalLane="1"> <stop lane="TL2W_1" endPos="750" duration="6"/> </vehicle>
    <vehicle id="E_W_90" type="standard_car" route="E_W" depart="277.0" departLane="random" departSpeed="10" arrivalLane="0"> <stop lane="TL2W_0" endPos="750" duration="6"/> </vehicle>
    <vehicle id="E_W_91" type="standard_car" route="E_W" depart="278.0" departLane="random" departSpeed="10" arrivalLane="2"> <stop lane="TL2W_2" endPos="750" duration="6"/> </vehicle>
    <vehicle id="E_W_92" type="standard_car" route="E_W" depart="282.0" departLane="random" departSpeed="10" arrivalLane="1"> <stop lane="TL2W_1" endPos="750" duration="6"/> </vehicle>
    <vehicle id="S_W_93" type="standard_car" route="S_W" depart="287.0" departLane="random" departSpeed="10" arrivalLane="0"> <stop lane="TL2W_0" endPos="750" duration="6"/> </vehicle>
    <vehicle id="E_W_94" type="standard_car" route="E_W" depart="288.0" departLane="random" departSpeed="10" arrivalLane="0"> <stop lane="TL2W_0" endPos="750" duration="6"/> </vehicle>
    <vehicle id="N_E_95" type="standard_car" route="N_E" depart="289.0" departLane="random" departSpeed="10" arrivalLane="1"> <stop lane="TL2E_1" endPos="750" duration="6"/> </vehicle>
    <vehicle id="N_E_96" type="standard_car" route="N_E" depart="291.0" departLane="random" departSpeed="10" arrivalLane="1"> <stop lane="TL2E_1" endPos="750" duration="6"/> </vehicle>
    <vehicle id="S_N_97" type="standard_car" route="S_N" depart="292.0" departLane="random" departSpeed="10" arrivalLane="2"> <stop lane="TL2N_2" endPos="750" duration="6"/> </vehicle>
    <vehicle id="S_N_98" type="standard_car" route="S_N" depart="295.0" departLane="random" departSpeed="10" arrivalLane="3"> <stop lane="TL2N_3" endPos="750" duration="6"/> </vehicle>
    <vehicle id="S_N_99" type="standard_car" route="S_N" depart="297.0" departLane="random" departSpeed="10" arrivalLane="0"> <stop lane="TL2N_0" endPos="750" duration="6"/> </vehicle>
    <vehicle id="S_W_100" type="standard_car" route="S_W" depart="300.0" departLane="random" departSpeed="10" arrivalLane="1"> <stop lane="TL2W_1" endPos="750" duration="6"/> </vehicle>
    <vehicle id="S_E_101" type="standard_car" route="S_E" depart="300.0" departLane="random" departSpeed="10" arrivalLane="2"> <stop lane="TL2E_2" endPos="750" duration="6"/> </vehicle>
    <vehicle id="N_S_102" type="standard_car" route="N_S" depart="301.0" departLane="random" departSpeed="10" arrivalLane="2"> <stop lane="TL2S_2" endPos="750" duration="7"/> </vehicle>
    <vehicle id="W_N_103" type="standard_car" route="W_N" depart="302.0" departLane="random" departSpeed="10" arrivalLane="3"> <stop lane="TL2N_3" endPos="750" duration="7"/> </vehicle>
    <vehicle id="E_W_104" type="standard_car" route="E_W" depart="304.0" departLane="random" departSpeed="10" arrivalLane="2"> <stop lane="TL2W_2" endPos="750" duration="7"/> </vehicle>
    <vehicle id="N_W_105" type="standard_car" route="N_W" depart="307.0" departLane="random" departSpeed="10" arrivalLane="3"> <stop lane="TL2W_3" endPos="750" duration="7"/> </vehicle>
    <vehicle id="W_E_106" type="standard_car" route="W_E" depart="307.0" departLane="random" departSpeed="10" arrivalLane="3"> <stop lane="TL2E_3" endPos="750" duration="7"/> </vehicle>
    <vehicle id="W_E_107" type="standard_car" route="W_E" depart="307.0" departLane="random" departSpeed="10" arrivalLane="2"> <stop lane="TL2E_2" endPos="750" duration="7"/> </vehicle>
    <vehicle id="E_W_108" type="standard_car" route="E_W" depart="308.0" departLane="random" departSpeed="10" arrivalLane="0"> <stop lane="TL2W_0" endPos="750" duration="7"/> </vehicle>
    <vehicle id="N_W_109" type="standard_car" route="N_W" depart="308.0" departLane="random" departSpeed="10" arrivalLane="1"> <stop lane="TL2W_1" endPos="750" duration="7"/> </vehicle>
    <vehicle id="N_S_110" type="standard_car" route="N_S" depart="308.0" departLane="random" departSpeed="10" arrivalLane="0"> <stop lane="TL2S_0" endPos="750" duration="7"/> </vehicle>
    <vehicle id="S_N_111" type="standard_car" route="S_N" depart="309.0" departLane="random" departSpeed="10" arrivalLane="2"> <stop lane="TL2N_2" endPos="750" duration="7"/> </vehicle>
    <vehicle id="E_S_112" type="standard_car" route="E_S" depart="310.0" departLane="random" departSpeed="10" arrivalLane="3"> <stop lane="TL2S_3" endPos="750" duration="7"/> </vehicle>
    <vehicle id="W_E_113" type="standard_car" route="W_E" depart="312.0" departLane="random" departSpeed="10" arrivalLane="0"> <stop lane="TL2E_0" endPos="750" duration="7"/> </vehicle>
    <vehicle id="E_W_114" type="standard_car" route="E_W" depart="314.0" departLane="random" departSpeed="10" arrivalLane="0"> <stop lane="TL2W_0" endPos="750" duration="7"/> </vehicle>
    <vehicle id="W_S_115" type="standard_car" route="W_S" depart="315.0" departLane="random" departSpeed="10" arrivalLane="2"> <stop lane="TL2S_2" endPos="750" duration="7"/> </vehicle>
    <vehicle id="E_W_116" type="standard_car" route="E_W" depart="317.0" departLane="random" departSpeed="10" arrivalLane="1"> <stop lane="TL2W_1" endPos="750" duration="7"/> </vehicle>
    <vehicle id="E_W_117" type="standard_car" route="E_W" depart="320.0" departLane="random" departSpeed="10" arrivalLane="1"> <stop lane="TL2W_1" endPos="750" duration="7"/> </vehicle>
    <vehicle id="N_S_118" type="standard_car" route="N_S" depart="320.0" departLane="random" departSpeed="10" arrivalLane="1"> <stop lane="TL2S_1" endPos="750" duration="7"/> </vehicle>
    <vehicle id="E_W_119" type="standard_car" route="E_W" depart="321.0" departLane="random" departSpeed="10" arrivalLane="2"> <stop lane="TL2W_2" endPos="750" duration="7"/> </vehicle>
    <vehicle id="E_W_120" type="standard_car" route="E_W" depart="323.0" departLane="random" departSpeed="10" arrivalLane="2"> <stop lane="TL2W_2" endPos="750" duration="7"/> </vehicle>
    <vehicle id="S_N_121" type="standard_car" route="S_N" depart="325.0" departLane="random" departSpeed="10" arrivalLane="3"> <stop lane="TL2N_3" endPos="750" duration="7"/> </vehicle>
    <vehicle id="W_E_122" type="standard_car" route="W_E" depart="327.0" departLane="random" departSpeed="10" arrivalLane="2"> <stop lane="TL2E_2" endPos="750" duration="7"/> </vehicle>
    <vehicle id="N_W_123" type="standard_car" route="N_W" depart="327.0" departLane="random" departSpeed="10" arrivalLane="0"> <stop lane="TL2W_0" endPos="750" duration="7"/> </vehicle>
    <vehicle id="W_E_124" type="standard_car" route="W_E" depart="327.0" departLane="random" departSpeed="10" arrivalLane="2"> <stop lane="TL2E_2" endPos="750" duration="7"/> </vehicle>
    <vehicle id="W_E_125" type="standard_car" route="W_E" depart="328.0" departLane="random" departSpeed="10" arrivalLane="3"> <stop lane="TL2E_3" endPos="750" duration="7"/> </vehicle>
    <vehicle id="S_N_126" type="standard_car" route="S_N" depart="330.0" departLane="random" departSpeed="10" arrivalLane="3"> <stop lane="TL2N_3" endPos="750" duration="7"/> </vehicle>
    <vehicle id="E_S_127" type="standard_car" route="E_S" depart="331.0" departLane="random" departSpeed="10" arrivalLane="3"> <stop lane="TL2S_3" endPos="750" duration="7"/> </vehicle>
    <vehicle id="W_S_128" type="standard_car" route="W_S" depart="331.0" departLane="random" departSpeed="10" arrivalLane="0"> <stop lane="TL2S_0" endPos="750" duration="7"/> </vehicle>
    <vehicle id="E_W_129" type="standard_car" route="E_W" depart="332.0" departLane="random" departSpeed="10" arrivalLane="0"> <stop lane="TL2W_0" endPos="750" duration="7"/> </vehicle>
    <vehicle id="E_W_130" type="standard_car" route="E_W" depart="333.0" departLane="random" departSpeed="10" arrivalLane="3"> <stop lane="TL2W_3" endPos="750" duration="7"/> </vehicle>
    <vehicle id="S_W_131" type="standard_car" route="S_W" depart="333.0" departLane="random" departSpeed="10" arrivalLane="3"> <stop lane="TL2W_3" endPos="750" duration="7"/> </vehicle>
    <vehicle id="W_E_132" type="standard_car" route="W_E" depart="336.0" departLane="random" departSpeed="10" arrivalLane="0"> <stop lane="TL2E_0" endPos="750" duration="7"/> </vehicle>
    <vehicle id="S_N_133" type="standard_car" route="S_N" depart="337.0" departLane="random" departSpeed="10" arrivalLane="0"> <stop lane="TL2N_0" endPos="750" duration="7"/> </vehicle>
    <vehicle id="S_N_134" type="standard_car" route="S_N" depart="338.0" departLane="random" departSpeed="10" arrivalLane="1"> <stop lane="TL2N_1" endPos="750" duration="7"/> </vehicle>
    <vehicle id="N_S_135" type="standard_car" route="N_S" depart="339.0" departLane="random" departSpeed="10" arrivalLane="3"> <stop lane="TL2S_3" endPos="750" duration="7"/> </vehicle>
    <vehicle id="S_N_136" type="standard_car" route="S_N" depart="341.0" departLane="random" departSpeed="10" arrivalLane="0"> <stop lane="TL2N_0" endPos="750" duration="7"/> </vehicle>
    <vehicle id="E_S_137" type="standard_car" route="E_S" depart="342.0" departLane="random" departSpeed="10" arrivalLane="1"> <stop lane="TL2S_1" endPos="750" duration="7"/> </vehicle>
    <vehicle id="W_S_138" type="standard_car" route="W_S" depart="344.0" departLane="random" departSpeed="10" arrivalLane="1"> <stop lane="TL2S_1" endPos="750" duration="7"/> </vehicle>
    <vehicle id="N_S_139" type="standard_car" route="N_S" depart="345.0" departLane="random" departSpeed="10" arrivalLane="2"> <stop lane="TL2S_2" endPos="750" duration="7"/> </vehicle>
    <vehicle id="W_S_140" type="standard_car" route="W_S" depart="345.0" departLane="random" departSpeed="10" arrivalLane="1"> <stop lane="TL2S_1" endPos="750" duration="7"/> </vehicle>
    <vehicle id="E_N_141" type="standard_car" route="E_N" depart="348.0" departLane="random" departSpeed="10" arrivalLane="2"> <stop lane="TL2N_2" endPos="750" duration="7"/> </vehicle>
    <vehicle id="S_N_142" type="standard_car" route="S_N" depart="348.0" departLane="random" departSpeed="10" arrivalLane="2"> <stop lane="TL2N_2" endPos="750" duration="7"/> </vehicle>
    <vehicle id="W_E_143" type="standard_car" route="W_E" depart="349.0" departLane="random" departSpeed="10" arrivalLane="3"> <stop lane="TL2E_3" endPos="750" duration="7"/> </vehicle>
    <vehicle id="S_N_144" type="standard_car" route="S_N" depart="350.0" departLane="random" departSpeed="10" arrivalLane="1"> <stop lane="TL2N_1" endPos="750" duration="7"/> </vehicle>
    <vehicle id="E_W_145" type="standard_car" route="E_W" depart="351.0" departLane="random" departSpeed="10" arrivalLane="1"> <stop lane="TL2W_1" endPos="750" duration="7"/> </vehicle>
    <vehicle id="N_S_146" type="standard_car" route="N_S" depart="351.0" departLane="random" departSpeed="10" arrivalLane="0"> <stop lane="TL2S_0" endPos="750" duration="7"/> </vehicle>
    <vehicle id="E_W_147" type="standard_car" route="E_W" depart="351.0" departLane="random" departSpeed="10" arrivalLane="3"> <stop lane="TL2W_3" endPos="750" duration="7"/> </vehicle>
    <vehicle id="N_S_148" type="standard_car" route="N_S" depart="352.0" departLane="random" departSpeed="10" arrivalLane="0"> <stop lane="TL2S_0" endPos="750" duration="7"/> </vehicle>
    <vehicle id="S_W_149" type="standard_car" route="S_W" depart="353.0" departLane="random" departSpeed="10" arrivalLane="3"> <stop lane="TL2W_3" endPos="750" duration="7"/> </vehicle>
    <vehicle id="W_E_150" type="standard_car" route="W_E" depart="354.0" departLane="random" departSpeed="10" arrivalLane="0"> <stop lane="TL2E_0" endPos="750" duration="7"/> </vehicle>
    <vehicle id="E_W_151" type="standard_car" route="E_W" depart="354.0" departLane="random" departSpeed="10" arrivalLane="0"> <stop lane="TL2W_0" endPos="750" duration="7"/> </vehicle>
    <vehicle id="W_S_152" type="standard_car" route="W_S" depart="354.0" departLane="random" departSpeed="10" arrivalLane="3"> <stop lane="TL2S_3" endPos="750" duration="7"/> </vehicle>
    <vehicle id="W_E_153" type="standard_car" route="W_E" depart="356.0" departLane="random" departSpeed="10" arrivalLane="3"> <stop lane="TL2E_3" endPos="750" duration="7"/> </vehicle>
    <vehicle id="E_W_154" type="standard_car" route="E_W" depart="356.0" departLane="random" departSpeed="10" arrivalLane="2"> <stop lane="TL2W_2" endPos="750" duration="7"/> </vehicle>
    <vehicle id="W_E_155" type="standard_car" route="W_E" depart="359.0" departLane="random" departSpeed="10" arrivalLane="3"> <stop lane="TL2E_3" endPos="750" duration="7"/> </vehicle>
    <vehicle id="W_E_156" type="standard_car" route="W_E" depart="361.0" departLane="random" departSpeed="10" arrivalLane="3"> <stop lane="TL2E_3" endPos="750" duration="7"/> </vehicle>
    <vehicle id="W_E_157" type="standard_car" route="W_E" depart="363.0" departLane="random" departSpeed="10" arrivalLane="3"> <stop lane="TL2E_3" endPos="750" duration="7"/> </vehicle>